<configuration>
	<net-file value="spiderverse.net.xml"/>
</configuration>