<?xml version="1.0" encoding="UTF-8"?>

<!-- generated on 03/17/22 23:05:09 by Eclipse SUMO netedit Version 1.8.0
<configuration xmlns:xsi="http://www.w3.org/2001/XMLSchema-instance" xsi:noNamespaceSchemaLocation="http://sumo.dlr.de/xsd/netconvertConfiguration.xsd">

    <input>
        <sumo-net-file value="E:\Users\GamerMakrides\Shortcuts\workspace_py\tratrafe2_sumo\spiderverse.net.xml"/>
    </input>

    <output>
        <output-file value="E:\Users\GamerMakrides\Shortcuts\workspace_py\tratrafe2_sumo\spiderverse.net.xml"/>
    </output>

    <processing>
        <geometry.min-radius.fix.railways value="false"/>
        <geometry.max-grade.fix value="false"/>
        <offset.disable-normalization value="true"/>
        <lefthand value="false"/>
    </processing>

    <junctions>
        <no-turnarounds value="true"/>
        <junctions.corner-detail value="5"/>
        <junctions.limit-turn-speed value="5.5"/>
        <rectangular-lane-cut value="false"/>
    </junctions>

    <pedestrian>
        <walkingareas value="false"/>
    </pedestrian>

    <report>
        <aggregate-warnings value="5"/>
    </report>

</configuration>
-->

<net version="1.6" junctionCornerDetail="5" limitTurnSpeed="5.50" xmlns:xsi="http://www.w3.org/2001/XMLSchema-instance" xsi:noNamespaceSchemaLocation="http://sumo.dlr.de/xsd/net_file.xsd">

    <location netOffset="2349.23,2462.02" convBoundary="0.00,0.00,4849.23,4924.04" origBoundary="-2349.23,-2462.02,2500.00,2462.02" projParameter="!"/>

    <edge id=":A1_0" function="internal">
        <lane id=":A1_0_0" index="0" speed="5.46" length="10.06" shape="2349.88,2474.90 2348.98,2471.73 2347.73,2470.51 2346.15,2471.23 2344.22,2473.90"/>
    </edge>
    <edge id=":A1_1" function="internal">
        <lane id=":A1_1_0" index="0" speed="8.14" length="16.69" shape="2349.88,2474.90 2348.41,2470.44 2345.90,2467.79 2342.35,2466.94 2337.76,2467.90"/>
    </edge>
    <edge id=":A1_2" function="internal">
        <lane id=":A1_2_0" index="0" speed="12.47" length="21.59" shape="2349.88,2474.90 2348.28,2469.53 2345.54,2465.11 2341.67,2461.65 2336.66,2459.15"/>
    </edge>
    <edge id=":A1_3" function="internal">
        <lane id=":A1_3_0" index="0" speed="13.89" length="24.69" shape="2349.88,2474.90 2348.54,2469.81 2346.27,2463.10 2343.70,2456.49 2341.45,2451.74"/>
    </edge>
    <edge id=":A1_4" function="internal">
        <lane id=":A1_4_0" index="0" speed="13.89" length="25.80" shape="2349.88,2474.90 2349.39,2469.49 2349.22,2462.02 2349.39,2454.55 2349.88,2449.14"/>
    </edge>
    <edge id=":A1_5" function="internal">
        <lane id=":A1_5_0" index="0" speed="13.38" length="24.95" shape="2349.88,2474.90 2349.49,2468.44 2350.72,2462.56 2353.55,2457.27 2358.00,2452.57"/>
    </edge>
    <edge id=":A1_6" function="internal">
        <lane id=":A1_6_0" index="0" speed="9.00" length="20.68" shape="2349.88,2474.90 2350.43,2470.02 2353.18,2465.33 2357.31,2461.81 2362.02,2460.42"/>
    </edge>
    <edge id=":A1_7" function="internal">
        <lane id=":A1_7_0" index="0" speed="6.20" length="13.52" shape="2349.88,2474.90 2350.76,2471.99 2353.59,2469.56 2357.10,2468.33 2360.06,2469.02"/>
    </edge>
    <edge id=":A1_8" function="internal">
        <lane id=":A1_8_0" index="0" speed="3.65" length="4.67" shape="2349.88,2474.90 2350.46,2473.58 2351.17,2473.04 2352.03,2473.30 2353.03,2474.34"/>
    </edge>
    <edge id=":A1_9" function="internal">
        <lane id=":A1_9_0" index="0" speed="5.46" length="10.06" shape="2358.00,2471.47 2355.28,2469.62 2353.54,2469.49 2352.79,2471.06 2353.03,2474.34"/>
    </edge>
    <edge id=":A1_10" function="internal">
        <lane id=":A1_10_0" index="0" speed="8.14" length="16.69" shape="2358.00,2471.47 2354.01,2469.00 2350.39,2468.58 2347.12,2470.21 2344.22,2473.90"/>
    </edge>
    <edge id=":A1_11" function="internal">
        <lane id=":A1_11_0" index="0" speed="12.47" length="21.59" shape="2358.00,2471.47 2353.33,2468.38 2348.39,2466.76 2343.20,2466.60 2337.76,2467.90"/>
    </edge>
    <edge id=":A1_12" function="internal">
        <lane id=":A1_12_0" index="0" speed="13.89" length="24.69" shape="2358.00,2471.47 2353.71,2468.43 2347.66,2464.74 2341.44,2461.34 2336.66,2459.15"/>
    </edge>
    <edge id=":A1_13" function="internal">
        <lane id=":A1_13_0" index="0" speed="13.89" length="25.80" shape="2358.00,2471.47 2354.15,2467.64 2349.23,2462.02 2344.55,2456.20 2341.45,2451.74"/>
    </edge>
    <edge id=":A1_14" function="internal">
        <lane id=":A1_14_0" index="0" speed="13.38" length="24.95" shape="2358.00,2471.47 2353.55,2466.77 2350.72,2461.48 2349.49,2455.60 2349.88,2449.14"/>
    </edge>
    <edge id=":A1_15" function="internal">
        <lane id=":A1_15_0" index="0" speed="9.00" length="20.68" shape="2358.00,2471.47 2355.29,2467.38 2354.38,2462.02 2355.29,2456.66 2358.00,2452.57"/>
    </edge>
    <edge id=":A1_16" function="internal">
        <lane id=":A1_16_0" index="0" speed="6.20" length="13.52" shape="2358.00,2471.47 2356.81,2468.68 2357.42,2465.00 2359.32,2461.79 2362.02,2460.42"/>
    </edge>
    <edge id=":A1_17" function="internal">
        <lane id=":A1_17_0" index="0" speed="3.65" length="4.67" shape="2358.00,2471.47 2357.60,2470.08 2357.80,2469.21 2358.62,2468.86 2360.06,2469.02"/>
    </edge>
    <edge id=":A1_18" function="internal">
        <lane id=":A1_18_0" index="0" speed="5.46" length="10.06" shape="2362.02,2463.62 2358.75,2463.96 2357.33,2464.97 2357.77,2466.66 2360.06,2469.02"/>
    </edge>
    <edge id=":A1_19" function="internal">
        <lane id=":A1_19_0" index="0" speed="8.14" length="16.69" shape="2362.02,2463.62 2357.38,2464.29 2354.33,2466.30 2352.88,2469.65 2353.03,2474.34"/>
    </edge>
    <edge id=":A1_20" function="internal">
        <lane id=":A1_20_0" index="0" speed="12.47" length="21.59" shape="2362.02,2463.62 2356.46,2464.26 2351.64,2466.19 2347.56,2469.40 2344.22,2473.90"/>
    </edge>
    <edge id=":A1_21" function="internal">
        <lane id=":A1_21_0" index="0" speed="13.89" length="24.69" shape="2362.02,2463.62 2356.78,2464.05 2349.78,2465.12 2342.83,2466.51 2337.76,2467.90"/>
    </edge>
    <edge id=":A1_22" function="internal">
        <lane id=":A1_22_0" index="0" speed="13.89" length="25.80" shape="2362.02,2463.62 2356.61,2463.16 2349.23,2462.03 2341.90,2460.57 2336.66,2459.15"/>
    </edge>
    <edge id=":A1_23" function="internal">
        <lane id=":A1_23_0" index="0" speed="13.38" length="24.95" shape="2362.02,2463.62 2355.59,2462.88 2350.02,2460.65 2345.31,2456.94 2341.45,2451.74"/>
    </edge>
    <edge id=":A1_24" function="internal">
        <lane id=":A1_24_0" index="0" speed="9.00" length="20.68" shape="2362.02,2463.62 2357.31,2462.23 2353.18,2458.71 2350.43,2454.02 2349.88,2449.14"/>
    </edge>
    <edge id=":A1_25" function="internal">
        <lane id=":A1_25_0" index="0" speed="6.20" length="13.52" shape="2362.02,2463.62 2359.32,2462.25 2357.42,2459.04 2356.81,2455.36 2358.00,2452.57"/>
    </edge>
    <edge id=":A1_26" function="internal">
        <lane id=":A1_26_0" index="0" speed="3.65" length="4.67" shape="2362.02,2463.62 2360.82,2462.82 2360.42,2462.02 2360.82,2461.22 2362.02,2460.42"/>
    </edge>
    <edge id=":A1_27" function="internal">
        <lane id=":A1_27_0" index="0" speed="5.46" length="10.06" shape="2360.06,2455.02 2357.77,2457.38 2357.33,2459.07 2358.75,2460.08 2362.02,2460.42"/>
    </edge>
    <edge id=":A1_28" function="internal">
        <lane id=":A1_28_0" index="0" speed="8.14" length="16.69" shape="2360.06,2455.02 2356.93,2458.52 2355.89,2462.02 2356.93,2465.52 2360.06,2469.02"/>
    </edge>
    <edge id=":A1_29" function="internal">
        <lane id=":A1_29_0" index="0" speed="12.47" length="21.59" shape="2360.06,2455.02 2356.21,2459.09 2353.75,2463.67 2352.69,2468.75 2353.03,2474.34"/>
    </edge>
    <edge id=":A1_30" function="internal">
        <lane id=":A1_30_0" index="0" speed="13.89" length="24.69" shape="2360.06,2455.02 2356.32,2458.72 2351.64,2464.04 2347.21,2469.57 2344.22,2473.90"/>
    </edge>
    <edge id=":A1_31" function="internal">
        <lane id=":A1_31_0" index="0" speed="13.89" length="25.80" shape="2360.06,2455.02 2355.62,2458.15 2349.23,2462.02 2342.68,2465.62 2337.76,2467.90"/>
    </edge>
    <edge id=":A1_32" function="internal">
        <lane id=":A1_32_0" index="0" speed="13.38" length="24.95" shape="2360.06,2455.02 2354.66,2458.59 2348.96,2460.46 2342.96,2460.65 2336.66,2459.15"/>
    </edge>
    <edge id=":A1_33" function="internal">
        <lane id=":A1_33_0" index="0" speed="9.01" length="20.69" shape="2360.06,2455.02 2355.56,2456.99 2350.12,2456.95 2345.01,2455.13 2341.45,2451.74"/>
    </edge>
    <edge id=":A1_34" function="internal">
        <lane id=":A1_34_0" index="0" speed="6.20" length="13.52" shape="2360.06,2455.02 2357.10,2455.71 2353.59,2454.48 2350.76,2452.05 2349.88,2449.14"/>
    </edge>
    <edge id=":A1_35" function="internal">
        <lane id=":A1_35_0" index="0" speed="3.65" length="4.67" shape="2360.06,2455.02 2358.62,2455.18 2357.80,2454.83 2357.60,2453.96 2358.00,2452.57"/>
    </edge>
    <edge id=":A1_36" function="internal">
        <lane id=":A1_36_0" index="0" speed="5.46" length="10.06" shape="2353.03,2449.70 2352.79,2452.98 2353.54,2454.55 2355.28,2454.42 2358.00,2452.57"/>
    </edge>
    <edge id=":A1_37" function="internal">
        <lane id=":A1_37_0" index="0" speed="8.14" length="16.69" shape="2353.03,2449.70 2352.88,2454.39 2354.33,2457.74 2357.38,2459.75 2362.02,2460.42"/>
    </edge>
    <edge id=":A1_38" function="internal">
        <lane id=":A1_38_0" index="0" speed="12.47" length="21.59" shape="2353.03,2449.70 2352.69,2455.29 2353.75,2460.37 2356.21,2464.95 2360.06,2469.02"/>
    </edge>
    <edge id=":A1_39" function="internal">
        <lane id=":A1_39_0" index="0" speed="13.89" length="24.69" shape="2353.03,2449.70 2352.54,2454.93 2352.38,2462.02 2352.54,2469.11 2353.03,2474.34"/>
    </edge>
    <edge id=":A1_40" function="internal">
        <lane id=":A1_40_0" index="0" speed="13.89" length="25.80" shape="2353.03,2449.70 2351.64,2454.95 2349.24,2462.02 2346.53,2468.98 2344.22,2473.90"/>
    </edge>
    <edge id=":A1_41" function="internal">
        <lane id=":A1_41_0" index="0" speed="13.38" length="24.95" shape="2353.03,2449.70 2351.18,2455.90 2348.02,2461.00 2343.54,2465.00 2337.76,2467.90"/>
    </edge>
    <edge id=":A1_42" function="internal">
        <lane id=":A1_42_0" index="0" speed="9.01" length="20.69" shape="2353.03,2449.70 2350.84,2454.10 2346.65,2457.56 2341.56,2459.45 2336.66,2459.15"/>
    </edge>
    <edge id=":A1_43" function="internal">
        <lane id=":A1_43_0" index="0" speed="6.20" length="13.52" shape="2353.03,2449.70 2351.21,2452.12 2347.72,2453.44 2343.99,2453.40 2341.45,2451.74"/>
    </edge>
    <edge id=":A1_44" function="internal">
        <lane id=":A1_44_0" index="0" speed="3.65" length="4.67" shape="2353.03,2449.70 2352.03,2450.74 2351.17,2451.00 2350.46,2450.46 2349.88,2449.14"/>
    </edge>
    <edge id=":A1_45" function="internal">
        <lane id=":A1_45_0" index="0" speed="5.46" length="10.06" shape="2344.22,2450.14 2346.15,2452.81 2347.73,2453.53 2348.98,2452.31 2349.88,2449.14"/>
    </edge>
    <edge id=":A1_46" function="internal">
        <lane id=":A1_46_0" index="0" speed="8.14" length="16.69" shape="2344.22,2450.14 2347.12,2453.83 2350.39,2455.46 2354.01,2455.04 2358.00,2452.57"/>
    </edge>
    <edge id=":A1_47" function="internal">
        <lane id=":A1_47_0" index="0" speed="12.47" length="21.59" shape="2344.22,2450.14 2347.56,2454.64 2351.64,2457.85 2356.46,2459.78 2362.02,2460.42"/>
    </edge>
    <edge id=":A1_48" function="internal">
        <lane id=":A1_48_0" index="0" speed="13.89" length="24.69" shape="2344.22,2450.14 2347.21,2454.47 2351.64,2460.00 2356.32,2465.32 2360.06,2469.02"/>
    </edge>
    <edge id=":A1_49" function="internal">
        <lane id=":A1_49_0" index="0" speed="13.89" length="25.80" shape="2344.22,2450.14 2346.53,2455.06 2349.24,2462.02 2351.64,2469.09 2353.03,2474.34"/>
    </edge>
    <edge id=":A1_50" function="internal">
        <lane id=":A1_50_0" index="0" speed="13.38" length="24.94" shape="2344.22,2450.14 2346.79,2456.08 2347.65,2462.02 2346.79,2467.96 2344.22,2473.90"/>
    </edge>
    <edge id=":A1_51" function="internal">
        <lane id=":A1_51_0" index="0" speed="9.00" length="20.68" shape="2344.22,2450.14 2345.37,2454.91 2344.39,2460.26 2341.71,2464.98 2337.76,2467.90"/>
    </edge>
    <edge id=":A1_52" function="internal">
        <lane id=":A1_52_0" index="0" speed="6.20" length="13.52" shape="2344.22,2450.14 2344.38,2453.17 2342.56,2456.42 2339.67,2458.78 2336.66,2459.15"/>
    </edge>
    <edge id=":A1_53" function="internal">
        <lane id=":A1_53_0" index="0" speed="3.65" length="4.67" shape="2344.22,2450.14 2344.13,2451.58 2343.63,2452.33 2342.74,2452.38 2341.45,2451.74"/>
    </edge>
    <edge id=":A1_54" function="internal">
        <lane id=":A1_54_0" index="0" speed="5.46" length="10.06" shape="2337.76,2456.14 2340.95,2456.94 2342.62,2456.48 2342.79,2454.74 2341.45,2451.74"/>
    </edge>
    <edge id=":A1_55" function="internal">
        <lane id=":A1_55_0" index="0" speed="8.14" length="16.69" shape="2337.76,2456.14 2342.35,2457.10 2345.90,2456.25 2348.41,2453.60 2349.88,2449.14"/>
    </edge>
    <edge id=":A1_56" function="internal">
        <lane id=":A1_56_0" index="0" speed="12.47" length="21.59" shape="2337.76,2456.14 2343.20,2457.44 2348.39,2457.28 2353.33,2455.66 2358.00,2452.57"/>
    </edge>
    <edge id=":A1_57" function="internal">
        <lane id=":A1_57_0" index="0" speed="13.89" length="24.69" shape="2337.76,2456.14 2342.83,2457.53 2349.78,2458.92 2356.78,2459.99 2362.02,2460.42"/>
    </edge>
    <edge id=":A1_58" function="internal">
        <lane id=":A1_58_0" index="0" speed="13.89" length="25.80" shape="2337.76,2456.14 2342.68,2458.42 2349.23,2462.02 2355.62,2465.89 2360.06,2469.02"/>
    </edge>
    <edge id=":A1_59" function="internal">
        <lane id=":A1_59_0" index="0" speed="13.38" length="24.95" shape="2337.76,2456.14 2343.54,2459.04 2348.02,2463.04 2351.18,2468.14 2353.03,2474.34"/>
    </edge>
    <edge id=":A1_60" function="internal">
        <lane id=":A1_60_0" index="0" speed="9.00" length="20.68" shape="2337.76,2456.14 2341.71,2459.06 2344.39,2463.78 2345.37,2469.13 2344.22,2473.90"/>
    </edge>
    <edge id=":A1_61" function="internal">
        <lane id=":A1_61_0" index="0" speed="6.20" length="13.52" shape="2337.76,2456.14 2339.83,2458.36 2340.52,2462.02 2339.83,2465.68 2337.76,2467.90"/>
    </edge>
    <edge id=":A1_62" function="internal">
        <lane id=":A1_62_0" index="0" speed="3.65" length="4.67" shape="2337.76,2456.14 2338.61,2457.30 2338.71,2458.19 2338.06,2458.81 2336.66,2459.15"/>
    </edge>
    <edge id=":A1_63" function="internal">
        <lane id=":A1_63_0" index="0" speed="5.46" length="10.06" shape="2336.66,2464.89 2339.62,2463.46 2340.61,2462.02 2339.62,2460.58 2336.66,2459.15"/>
    </edge>
    <edge id=":A1_64" function="internal">
        <lane id=":A1_64_0" index="0" speed="8.14" length="16.69" shape="2336.66,2464.89 2340.80,2462.67 2342.97,2459.74 2343.19,2456.10 2341.45,2451.74"/>
    </edge>
    <edge id=":A1_65" function="internal">
        <lane id=":A1_65_0" index="0" speed="12.47" length="21.59" shape="2336.66,2464.89 2341.67,2462.39 2345.54,2458.93 2348.28,2454.51 2349.88,2449.14"/>
    </edge>
    <edge id=":A1_66" function="internal">
        <lane id=":A1_66_0" index="0" speed="13.89" length="24.69" shape="2336.66,2464.89 2341.44,2462.70 2347.66,2459.30 2353.71,2455.61 2358.00,2452.57"/>
    </edge>
    <edge id=":A1_67" function="internal">
        <lane id=":A1_67_0" index="0" speed="13.89" length="25.80" shape="2336.66,2464.89 2341.90,2463.47 2349.23,2462.01 2356.61,2460.88 2362.02,2460.42"/>
    </edge>
    <edge id=":A1_68" function="internal">
        <lane id=":A1_68_0" index="0" speed="13.38" length="24.95" shape="2336.66,2464.89 2342.96,2463.39 2348.96,2463.58 2354.66,2465.45 2360.06,2469.02"/>
    </edge>
    <edge id=":A1_69" function="internal">
        <lane id=":A1_69_0" index="0" speed="9.01" length="20.69" shape="2336.66,2464.89 2341.56,2464.59 2346.65,2466.48 2350.84,2469.94 2353.03,2474.34"/>
    </edge>
    <edge id=":A1_70" function="internal">
        <lane id=":A1_70_0" index="0" speed="6.20" length="13.52" shape="2336.66,2464.89 2339.67,2465.26 2342.56,2467.62 2344.38,2470.87 2344.22,2473.90"/>
    </edge>
    <edge id=":A1_71" function="internal">
        <lane id=":A1_71_0" index="0" speed="3.65" length="4.67" shape="2336.66,2464.89 2338.06,2465.23 2338.71,2465.85 2338.61,2466.74 2337.76,2467.90"/>
    </edge>
    <edge id=":A1_72" function="internal">
        <lane id=":A1_72_0" index="0" speed="5.46" length="10.06" shape="2341.45,2472.30 2342.79,2469.30 2342.62,2467.56 2340.95,2467.10 2337.76,2467.90"/>
    </edge>
    <edge id=":A1_73" function="internal">
        <lane id=":A1_73_0" index="0" speed="8.14" length="16.69" shape="2341.45,2472.30 2343.19,2467.94 2342.97,2464.30 2340.80,2461.37 2336.66,2459.15"/>
    </edge>
    <edge id=":A1_74" function="internal">
        <lane id=":A1_74_0" index="0" speed="12.47" length="21.58" shape="2341.45,2472.30 2343.67,2467.16 2344.42,2462.02 2343.67,2456.88 2341.45,2451.74"/>
    </edge>
    <edge id=":A1_75" function="internal">
        <lane id=":A1_75_0" index="0" speed="13.89" length="24.69" shape="2341.45,2472.30 2343.70,2467.55 2346.27,2460.94 2348.54,2454.23 2349.88,2449.14"/>
    </edge>
    <edge id=":A1_76" function="internal">
        <lane id=":A1_76_0" index="0" speed="13.89" length="25.80" shape="2341.45,2472.30 2344.55,2467.84 2349.23,2462.02 2354.15,2456.40 2358.00,2452.57"/>
    </edge>
    <edge id=":A1_77" function="internal">
        <lane id=":A1_77_0" index="0" speed="13.38" length="24.95" shape="2341.45,2472.30 2345.31,2467.10 2350.02,2463.39 2355.59,2461.16 2362.02,2460.42"/>
    </edge>
    <edge id=":A1_78" function="internal">
        <lane id=":A1_78_0" index="0" speed="9.01" length="20.69" shape="2341.45,2472.30 2345.01,2468.91 2350.12,2467.09 2355.56,2467.05 2360.06,2469.02"/>
    </edge>
    <edge id=":A1_79" function="internal">
        <lane id=":A1_79_0" index="0" speed="6.20" length="13.52" shape="2341.45,2472.30 2343.99,2470.64 2347.72,2470.60 2351.21,2471.92 2353.03,2474.34"/>
    </edge>
    <edge id=":A1_80" function="internal">
        <lane id=":A1_80_0" index="0" speed="3.65" length="4.67" shape="2341.45,2472.30 2342.74,2471.66 2343.63,2471.71 2344.13,2472.46 2344.22,2473.90"/>
    </edge>
    <edge id=":B1_0" function="internal">
        <lane id=":B1_0_0" index="0" speed="8.24" length="11.08" shape="2455.47,2463.62 2453.07,2464.06 2450.99,2465.37 2449.24,2467.56 2447.80,2470.62"/>
    </edge>
    <edge id=":B1_1" function="internal">
        <lane id=":B1_1_0" index="0" speed="13.89" length="14.81" shape="2455.47,2463.62 2440.66,2463.62"/>
    </edge>
    <edge id=":B1_2" function="internal">
        <lane id=":B1_2_0" index="0" speed="9.51" length="5.52" shape="2455.47,2463.62 2452.04,2463.05 2450.28,2462.02"/>
    </edge>
    <edge id=":B1_3" function="internal">
        <lane id=":B1_3_0" index="0" speed="3.65" length="2.34" shape="2455.47,2463.62 2454.27,2462.82 2453.87,2462.02"/>
    </edge>
    <edge id=":B1_16" function="internal">
        <lane id=":B1_16_0" index="0" speed="9.51" length="9.49" shape="2450.28,2462.02 2449.12,2461.34 2446.71,2458.50 2444.80,2454.51"/>
    </edge>
    <edge id=":B1_17" function="internal">
        <lane id=":B1_17_0" index="0" speed="3.65" length="2.34" shape="2453.87,2462.02 2454.27,2461.22 2455.47,2460.42"/>
    </edge>
    <edge id=":B1_4" function="internal">
        <lane id=":B1_4_0" index="0" speed="8.24" length="11.08" shape="2447.80,2453.42 2449.24,2456.48 2450.99,2458.67 2453.07,2459.98 2455.47,2460.42"/>
    </edge>
    <edge id=":B1_5" function="internal">
        <lane id=":B1_5_0" index="0" speed="13.89" length="17.45" shape="2447.80,2453.42 2448.76,2457.43 2449.09,2462.02 2448.76,2466.61 2447.80,2470.62"/>
    </edge>
    <edge id=":B1_6" function="internal">
        <lane id=":B1_6_0" index="0" speed="7.52" length="15.73" shape="2447.80,2453.42 2448.75,2457.88 2447.87,2461.07 2445.18,2462.98 2440.66,2463.62"/>
    </edge>
    <edge id=":B1_7" function="internal">
        <lane id=":B1_7_0" index="0" speed="3.65" length="4.67" shape="2447.80,2453.42 2447.46,2454.82 2446.85,2455.47 2445.96,2455.37 2444.80,2454.51"/>
    </edge>
    <edge id=":B1_8" function="internal">
        <lane id=":B1_8_0" index="0" speed="5.88" length="9.11" shape="2440.66,2460.42 2443.28,2460.05 2444.84,2458.94 2445.34,2457.10 2444.80,2454.51"/>
    </edge>
    <edge id=":B1_9" function="internal">
        <lane id=":B1_9_0" index="0" speed="13.89" length="14.81" shape="2440.66,2460.42 2455.47,2460.42"/>
    </edge>
    <edge id=":B1_10" function="internal">
        <lane id=":B1_10_0" index="0" speed="7.52" length="6.23" shape="2440.66,2460.42 2445.18,2461.06 2446.53,2462.02"/>
    </edge>
    <edge id=":B1_11" function="internal">
        <lane id=":B1_11_0" index="0" speed="3.65" length="2.34" shape="2440.66,2460.42 2441.86,2461.22 2442.26,2462.02"/>
    </edge>
    <edge id=":B1_18" function="internal">
        <lane id=":B1_18_0" index="0" speed="7.52" length="9.51" shape="2446.53,2462.02 2447.87,2462.97 2448.75,2466.16 2447.80,2470.62"/>
    </edge>
    <edge id=":B1_19" function="internal">
        <lane id=":B1_19_0" index="0" speed="3.65" length="2.34" shape="2442.26,2462.02 2441.86,2462.82 2440.66,2463.62"/>
    </edge>
    <edge id=":B1_12" function="internal">
        <lane id=":B1_12_0" index="0" speed="5.88" length="9.11" shape="2444.80,2469.53 2445.34,2466.94 2444.84,2465.10 2443.28,2463.99 2440.66,2463.62"/>
    </edge>
    <edge id=":B1_13" function="internal">
        <lane id=":B1_13_0" index="0" speed="13.89" length="15.29" shape="2444.80,2469.53 2445.76,2465.86 2446.08,2462.02 2445.76,2458.18 2444.80,2454.51"/>
    </edge>
    <edge id=":B1_14" function="internal">
        <lane id=":B1_14_0" index="0" speed="9.51" length="15.01" shape="2444.80,2469.53 2446.71,2465.54 2449.12,2462.70 2452.04,2460.99 2455.47,2460.42"/>
    </edge>
    <edge id=":B1_15" function="internal">
        <lane id=":B1_15_0" index="0" speed="3.65" length="4.67" shape="2444.80,2469.53 2445.96,2468.67 2446.85,2468.57 2447.46,2469.22 2447.80,2470.62"/>
    </edge>
    <edge id=":B2_0" function="internal">
        <lane id=":B2_0_0" index="0" speed="8.24" length="11.08" shape="2429.59,2531.54 2427.47,2530.33 2425.04,2530.00 2422.29,2530.55 2419.22,2531.97"/>
    </edge>
    <edge id=":B2_1" function="internal">
        <lane id=":B2_1_0" index="0" speed="13.89" length="14.81" shape="2429.59,2531.54 2418.25,2522.02"/>
    </edge>
    <edge id=":B2_2" function="internal">
        <lane id=":B2_2_0" index="0" speed="9.51" length="5.52" shape="2429.59,2531.54 2427.33,2528.90 2426.64,2526.97"/>
    </edge>
    <edge id=":B2_3" function="internal">
        <lane id=":B2_3_0" index="0" speed="3.65" length="2.34" shape="2429.59,2531.54 2429.19,2530.15 2429.39,2529.28"/>
    </edge>
    <edge id=":B2_16" function="internal">
        <lane id=":B2_16_0" index="0" speed="9.51" length="9.49" shape="2426.64,2526.97 2426.19,2525.71 2426.17,2521.98 2427.27,2517.70"/>
    </edge>
    <edge id=":B2_17" function="internal">
        <lane id=":B2_17_0" index="0" speed="3.65" length="2.34" shape="2429.39,2529.28 2430.22,2528.93 2431.65,2529.09"/>
    </edge>
    <edge id=":B2_4" function="internal">
        <lane id=":B2_4_0" index="0" speed="8.24" length="11.08" shape="2430.27,2518.79 2429.40,2522.06 2429.34,2524.87 2430.09,2527.21 2431.65,2529.09"/>
    </edge>
    <edge id=":B2_5" function="internal">
        <lane id=":B2_5_0" index="0" speed="13.89" length="17.45" shape="2430.27,2518.79 2428.43,2522.48 2425.73,2526.21 2422.53,2529.52 2419.22,2531.97"/>
    </edge>
    <edge id=":B2_6" function="internal">
        <lane id=":B2_6_0" index="0" speed="7.52" length="15.74" shape="2430.27,2518.79 2428.13,2522.82 2425.41,2524.70 2422.12,2524.43 2418.25,2522.02"/>
    </edge>
    <edge id=":B2_7" function="internal">
        <lane id=":B2_7_0" index="0" speed="3.65" length="4.67" shape="2430.27,2518.79 2429.11,2519.65 2428.22,2519.75 2427.61,2519.10 2427.27,2517.70"/>
    </edge>
    <edge id=":B2_8" function="internal">
        <lane id=":B2_8_0" index="0" speed="5.88" length="9.11" shape="2420.30,2519.57 2422.54,2520.96 2424.45,2521.12 2426.03,2520.03 2427.27,2517.70"/>
    </edge>
    <edge id=":B2_9" function="internal">
        <lane id=":B2_9_0" index="0" speed="13.89" length="14.81" shape="2420.30,2519.57 2431.65,2529.09"/>
    </edge>
    <edge id=":B2_10" function="internal">
        <lane id=":B2_10_0" index="0" speed="7.52" length="6.23" shape="2420.30,2519.57 2423.35,2522.96 2423.77,2524.57"/>
    </edge>
    <edge id=":B2_11" function="internal">
        <lane id=":B2_11_0" index="0" speed="3.65" length="2.34" shape="2420.30,2519.57 2420.71,2520.95 2420.50,2521.82"/>
    </edge>
    <edge id=":B2_18" function="internal">
        <lane id=":B2_18_0" index="0" speed="7.52" length="9.51" shape="2423.77,2524.57 2424.19,2526.16 2422.81,2529.16 2419.22,2531.97"/>
    </edge>
    <edge id=":B2_19" function="internal">
        <lane id=":B2_19_0" index="0" speed="3.65" length="2.34" shape="2420.50,2521.82 2419.68,2522.18 2418.25,2522.02"/>
    </edge>
    <edge id=":B2_12" function="internal">
        <lane id=":B2_12_0" index="0" speed="5.88" length="9.11" shape="2417.62,2529.20 2419.70,2527.57 2420.50,2525.83 2420.01,2523.98 2418.25,2522.02"/>
    </edge>
    <edge id=":B2_13" function="internal">
        <lane id=":B2_13_0" index="0" speed="13.89" length="15.29" shape="2417.62,2529.20 2420.71,2527.01 2423.43,2524.27 2425.65,2521.13 2427.27,2517.70"/>
    </edge>
    <edge id=":B2_14" function="internal">
        <lane id=":B2_14_0" index="0" speed="9.51" length="15.01" shape="2417.62,2529.20 2421.64,2527.38 2425.32,2526.75 2428.66,2527.32 2431.65,2529.09"/>
    </edge>
    <edge id=":B2_15" function="internal">
        <lane id=":B2_15_0" index="0" speed="3.65" length="4.67" shape="2417.62,2529.20 2419.06,2529.29 2419.80,2529.78 2419.86,2530.68 2419.22,2531.97"/>
    </edge>
    <edge id=":B3_0" function="internal">
        <lane id=":B3_0_0" index="0" speed="8.24" length="11.08" shape="2366.11,2566.92 2365.26,2564.64 2363.61,2562.82 2361.15,2561.47 2357.88,2560.59"/>
    </edge>
    <edge id=":B3_1" function="internal">
        <lane id=":B3_1_0" index="0" speed="13.89" length="14.81" shape="2366.11,2566.92 2363.54,2552.34"/>
    </edge>
    <edge id=":B3_2" function="internal">
        <lane id=":B3_2_0" index="0" speed="9.51" length="5.52" shape="2366.11,2566.92 2366.07,2563.45 2366.78,2561.53"/>
    </edge>
    <edge id=":B3_3" function="internal">
        <lane id=":B3_3_0" index="0" speed="3.65" length="2.34" shape="2366.11,2566.92 2366.69,2565.60 2367.41,2565.07"/>
    </edge>
    <edge id=":B3_16" function="internal">
        <lane id=":B3_16_0" index="0" speed="9.51" length="9.49" shape="2366.78,2561.53 2367.25,2560.28 2369.63,2557.40 2373.22,2554.83"/>
    </edge>
    <edge id=":B3_17" function="internal">
        <lane id=":B3_17_0" index="0" speed="3.65" length="2.34" shape="2367.41,2565.07 2368.26,2565.33 2369.26,2566.37"/>
    </edge>
    <edge id=":B3_4" function="internal">
        <lane id=":B3_4_0" index="0" speed="8.24" length="11.08" shape="2374.82,2557.60 2372.05,2559.55 2370.21,2561.66 2369.27,2563.93 2369.26,2566.37"/>
    </edge>
    <edge id=":B3_5" function="internal">
        <lane id=":B3_5_0" index="0" speed="13.89" length="17.45" shape="2374.82,2557.60 2371.04,2559.24 2366.57,2560.36 2362.00,2560.84 2357.88,2560.59"/>
    </edge>
    <edge id=":B3_6" function="internal">
        <lane id=":B3_6_0" index="0" speed="7.52" length="15.73" shape="2374.82,2557.60 2370.59,2559.31 2367.30,2559.00 2364.95,2556.68 2363.54,2552.34"/>
    </edge>
    <edge id=":B3_7" function="internal">
        <lane id=":B3_7_0" index="0" speed="3.65" length="4.67" shape="2374.82,2557.60 2373.38,2557.51 2372.64,2557.02 2372.58,2556.12 2373.22,2554.83"/>
    </edge>
    <edge id=":B3_8" function="internal">
        <lane id=":B3_8_0" index="0" speed="5.88" length="9.11" shape="2366.69,2551.78 2367.50,2554.29 2368.87,2555.64 2370.77,2555.82 2373.22,2554.83"/>
    </edge>
    <edge id=":B3_9" function="internal">
        <lane id=":B3_9_0" index="0" speed="13.89" length="14.81" shape="2366.69,2551.78 2369.26,2566.37"/>
    </edge>
    <edge id=":B3_10" function="internal">
        <lane id=":B3_10_0" index="0" speed="7.52" length="6.23" shape="2366.69,2551.78 2366.84,2556.34 2366.13,2557.84"/>
    </edge>
    <edge id=":B3_11" function="internal">
        <lane id=":B3_11_0" index="0" speed="3.65" length="2.34" shape="2366.69,2551.78 2366.11,2553.10 2365.39,2553.64"/>
    </edge>
    <edge id=":B3_18" function="internal">
        <lane id=":B3_18_0" index="0" speed="7.52" length="9.51" shape="2366.13,2557.84 2365.43,2559.33 2362.44,2560.74 2357.88,2560.59"/>
    </edge>
    <edge id=":B3_19" function="internal">
        <lane id=":B3_19_0" index="0" speed="3.65" length="2.34" shape="2365.39,2553.64 2364.53,2553.38 2363.54,2552.34"/>
    </edge>
    <edge id=":B3_12" function="internal">
        <lane id=":B3_12_0" index="0" speed="5.88" length="9.11" shape="2358.44,2557.44 2361.08,2557.53 2362.81,2556.71 2363.63,2554.98 2363.54,2552.34"/>
    </edge>
    <edge id=":B3_13" function="internal">
        <lane id=":B3_13_0" index="0" speed="13.89" length="15.29" shape="2358.44,2557.44 2362.22,2557.75 2366.05,2557.40 2369.78,2556.41 2373.22,2554.83"/>
    </edge>
    <edge id=":B3_14" function="internal">
        <lane id=":B3_14_0" index="0" speed="9.51" length="15.01" shape="2358.44,2557.44 2362.69,2558.63 2365.91,2560.51 2368.10,2563.09 2369.26,2566.37"/>